
     RDKit          3D

 12 11  0  0  0  0  0  0  0  0999 V2000
   -0.1094   -0.7530    0.0083 C   0  0  0  0  0  0  0  0  0  0  0  0
   -0.3376   -1.9493   -0.1070 O   0  0  0  0  0  0  0  0  0  0  0  0
    1.1562   -0.3325   -0.1823 O   0  0  0  0  0  0  0  0  0  0  0  0
    1.6276    0.9904    0.1685 C   0  0  0  0  0  0  0  0  0  0  0  0
    1.0823    1.3915    1.0229 H   0  0  0  0  0  0  0  0  0  0  0  0
    2.6795    0.8618    0.4229 H   0  0  0  0  0  0  0  0  0  0  0  0
    1.5377    1.6585   -0.6899 H   0  0  0  0  0  0  0  0  0  0  0  0
   -1.2144    0.1927    0.3340 C   0  0  0  0  0  0  0  0  0  0  0  0
   -1.9450   -0.2280    1.0196 H   0  0  0  0  0  0  0  0  0  0  0  0
   -1.4372    1.3743   -0.2523 C   0  0  0  0  0  0  0  0  0  0  0  0
   -2.3394    1.9353   -0.0291 H   0  0  0  0  0  0  0  0  0  0  0  0
   -0.7633    1.8087   -0.9831 H   0  0  0  0  0  0  0  0  0  0  0  0
  1  8  1  0  0  0  0
  2  1  2  0  0  0  0
  3  1  1  0  0  0  0
  3  4  1  0  0  0  0
  4  6  1  0  0  0  0
  4  5  1  0  0  0  0
  7  4  1  0  0  0  0
  8  9  1  0  0  0  0
 10 11  1  0  0  0  0
 10  8  2  0  0  0  0
 12 10  1  0  0  0  0
M  END
$$$$
