
     RDKit          3D

  6  5  0  0  0  0  0  0  0  0999 V2000
   -0.0972    0.2556   -0.2921 C   0  0  0  0  0  0  0  0  0  0  0  0
    0.1440    1.0511   -1.2549 O   0  0  0  0  0  0  0  0  0  0  0  0
    0.9568   -0.4207    0.3298 O   0  0  0  0  0  0  0  0  0  0  0  0
    2.3047   -0.1691   -0.1065 C   0  0  0  0  0  0  0  0  0  0  0  0
   -1.4641    0.0454    0.2023 C   0  0  0  0  0  0  0  0  0  0  0  0
   -1.7134   -0.8376    1.1955 C   0  0  0  0  0  0  0  0  0  0  0  0
  1  5  1  0
  2  1  2  0
  3  1  1  0
  3  4  1  0
  6  5  2  0
M  END
$$$$
